$ Spice netlist generated by v2lvs
$ v2019.3_37.23    Thu Sep 5 16:39:23 PDT 2019
.INCLUDE "/bgfs/ece2192-2020f/kit/standardcell/lib/files/cells_vtl.cdl" 
*.BUSDELIMITER [ 

.SUBCKT MLP_no_sram clk rst_b start_layer1_i start_layer2_i 
+ weight_bias_mem_req_o weight_bias_mem_ack_i weight_bias_mem_addr_o[9] 
+ weight_bias_mem_addr_o[8] weight_bias_mem_addr_o[7] weight_bias_mem_addr_o[6] 
+ weight_bias_mem_addr_o[5] weight_bias_mem_addr_o[4] weight_bias_mem_addr_o[3] 
+ weight_bias_mem_addr_o[2] weight_bias_mem_addr_o[1] weight_bias_mem_addr_o[0] 
+ img_mem_req_o img_mem_ack_i img_mem_addr_o[4] img_mem_addr_o[3] 
+ img_mem_addr_o[2] img_mem_addr_o[1] img_mem_addr_o[0] layer1_done_o 
+ layer2_done_o image_i[255] image_i[254] image_i[253] image_i[252] 
+ image_i[251] image_i[250] image_i[249] image_i[248] image_i[247] image_i[246] 
+ image_i[245] image_i[244] image_i[243] image_i[242] image_i[241] image_i[240] 
+ image_i[239] image_i[238] image_i[237] image_i[236] image_i[235] image_i[234] 
+ image_i[233] image_i[232] image_i[231] image_i[230] image_i[229] image_i[228] 
+ image_i[227] image_i[226] image_i[225] image_i[224] image_i[223] image_i[222] 
+ image_i[221] image_i[220] image_i[219] image_i[218] image_i[217] image_i[216] 
+ image_i[215] image_i[214] image_i[213] image_i[212] image_i[211] image_i[210] 
+ image_i[209] image_i[208] image_i[207] image_i[206] image_i[205] image_i[204] 
+ image_i[203] image_i[202] image_i[201] image_i[200] image_i[199] image_i[198] 
+ image_i[197] image_i[196] image_i[195] image_i[194] image_i[193] image_i[192] 
+ image_i[191] image_i[190] image_i[189] image_i[188] image_i[187] image_i[186] 
+ image_i[185] image_i[184] image_i[183] image_i[182] image_i[181] image_i[180] 
+ image_i[179] image_i[178] image_i[177] image_i[176] image_i[175] image_i[174] 
+ image_i[173] image_i[172] image_i[171] image_i[170] image_i[169] image_i[168] 
+ image_i[167] image_i[166] image_i[165] image_i[164] image_i[163] image_i[162] 
+ image_i[161] image_i[160] image_i[159] image_i[158] image_i[157] image_i[156] 
+ image_i[155] image_i[154] image_i[153] image_i[152] image_i[151] image_i[150] 
+ image_i[149] image_i[148] image_i[147] image_i[146] image_i[145] image_i[144] 
+ image_i[143] image_i[142] image_i[141] image_i[140] image_i[139] image_i[138] 
+ image_i[137] image_i[136] image_i[135] image_i[134] image_i[133] image_i[132] 
+ image_i[131] image_i[130] image_i[129] image_i[128] image_i[127] image_i[126] 
+ image_i[125] image_i[124] image_i[123] image_i[122] image_i[121] image_i[120] 
+ image_i[119] image_i[118] image_i[117] image_i[116] image_i[115] image_i[114] 
+ image_i[113] image_i[112] image_i[111] image_i[110] image_i[109] image_i[108] 
+ image_i[107] image_i[106] image_i[105] image_i[104] image_i[103] image_i[102] 
+ image_i[101] image_i[100] image_i[99] image_i[98] image_i[97] image_i[96] 
+ image_i[95] image_i[94] image_i[93] image_i[92] image_i[91] image_i[90] 
+ image_i[89] image_i[88] image_i[87] image_i[86] image_i[85] image_i[84] 
+ image_i[83] image_i[82] image_i[81] image_i[80] image_i[79] image_i[78] 
+ image_i[77] image_i[76] image_i[75] image_i[74] image_i[73] image_i[72] 
+ image_i[71] image_i[70] image_i[69] image_i[68] image_i[67] image_i[66] 
+ image_i[65] image_i[64] image_i[63] image_i[62] image_i[61] image_i[60] 
+ image_i[59] image_i[58] image_i[57] image_i[56] image_i[55] image_i[54] 
+ image_i[53] image_i[52] image_i[51] image_i[50] image_i[49] image_i[48] 
+ image_i[47] image_i[46] image_i[45] image_i[44] image_i[43] image_i[42] 
+ image_i[41] image_i[40] image_i[39] image_i[38] image_i[37] image_i[36] 
+ image_i[35] image_i[34] image_i[33] image_i[32] image_i[31] image_i[30] 
+ image_i[29] image_i[28] image_i[27] image_i[26] image_i[25] image_i[24] 
+ image_i[23] image_i[22] image_i[21] image_i[20] image_i[19] image_i[18] 
+ image_i[17] image_i[16] image_i[15] image_i[14] image_i[13] image_i[12] 
+ image_i[11] image_i[10] image_i[9] image_i[8] image_i[7] image_i[6] 
+ image_i[5] image_i[4] image_i[3] image_i[2] image_i[1] image_i[0] 
+ weight_i[255] weight_i[254] weight_i[253] weight_i[252] weight_i[251] 
+ weight_i[250] weight_i[249] weight_i[248] weight_i[247] weight_i[246] 
+ weight_i[245] weight_i[244] weight_i[243] weight_i[242] weight_i[241] 
+ weight_i[240] weight_i[239] weight_i[238] weight_i[237] weight_i[236] 
+ weight_i[235] weight_i[234] weight_i[233] weight_i[232] weight_i[231] 
+ weight_i[230] weight_i[229] weight_i[228] weight_i[227] weight_i[226] 
+ weight_i[225] weight_i[224] weight_i[223] weight_i[222] weight_i[221] 
+ weight_i[220] weight_i[219] weight_i[218] weight_i[217] weight_i[216] 
+ weight_i[215] weight_i[214] weight_i[213] weight_i[212] weight_i[211] 
+ weight_i[210] weight_i[209] weight_i[208] weight_i[207] weight_i[206] 
+ weight_i[205] weight_i[204] weight_i[203] weight_i[202] weight_i[201] 
+ weight_i[200] weight_i[199] weight_i[198] weight_i[197] weight_i[196] 
+ weight_i[195] weight_i[194] weight_i[193] weight_i[192] weight_i[191] 
+ weight_i[190] weight_i[189] weight_i[188] weight_i[187] weight_i[186] 
+ weight_i[185] weight_i[184] weight_i[183] weight_i[182] weight_i[181] 
+ weight_i[180] weight_i[179] weight_i[178] weight_i[177] weight_i[176] 
+ weight_i[175] weight_i[174] weight_i[173] weight_i[172] weight_i[171] 
+ weight_i[170] weight_i[169] weight_i[168] weight_i[167] weight_i[166] 
+ weight_i[165] weight_i[164] weight_i[163] weight_i[162] weight_i[161] 
+ weight_i[160] weight_i[159] weight_i[158] weight_i[157] weight_i[156] 
+ weight_i[155] weight_i[154] weight_i[153] weight_i[152] weight_i[151] 
+ weight_i[150] weight_i[149] weight_i[148] weight_i[147] weight_i[146] 
+ weight_i[145] weight_i[144] weight_i[143] weight_i[142] weight_i[141] 
+ weight_i[140] weight_i[139] weight_i[138] weight_i[137] weight_i[136] 
+ weight_i[135] weight_i[134] weight_i[133] weight_i[132] weight_i[131] 
+ weight_i[130] weight_i[129] weight_i[128] weight_i[127] weight_i[126] 
+ weight_i[125] weight_i[124] weight_i[123] weight_i[122] weight_i[121] 
+ weight_i[120] weight_i[119] weight_i[118] weight_i[117] weight_i[116] 
+ weight_i[115] weight_i[114] weight_i[113] weight_i[112] weight_i[111] 
+ weight_i[110] weight_i[109] weight_i[108] weight_i[107] weight_i[106] 
+ weight_i[105] weight_i[104] weight_i[103] weight_i[102] weight_i[101] 
+ weight_i[100] weight_i[99] weight_i[98] weight_i[97] weight_i[96] 
+ weight_i[95] weight_i[94] weight_i[93] weight_i[92] weight_i[91] weight_i[90] 
+ weight_i[89] weight_i[88] weight_i[87] weight_i[86] weight_i[85] weight_i[84] 
+ weight_i[83] weight_i[82] weight_i[81] weight_i[80] weight_i[79] weight_i[78] 
+ weight_i[77] weight_i[76] weight_i[75] weight_i[74] weight_i[73] weight_i[72] 
+ weight_i[71] weight_i[70] weight_i[69] weight_i[68] weight_i[67] weight_i[66] 
+ weight_i[65] weight_i[64] weight_i[63] weight_i[62] weight_i[61] weight_i[60] 
+ weight_i[59] weight_i[58] weight_i[57] weight_i[56] weight_i[55] weight_i[54] 
+ weight_i[53] weight_i[52] weight_i[51] weight_i[50] weight_i[49] weight_i[48] 
+ weight_i[47] weight_i[46] weight_i[45] weight_i[44] weight_i[43] weight_i[42] 
+ weight_i[41] weight_i[40] weight_i[39] weight_i[38] weight_i[37] weight_i[36] 
+ weight_i[35] weight_i[34] weight_i[33] weight_i[32] weight_i[31] weight_i[30] 
+ weight_i[29] weight_i[28] weight_i[27] weight_i[26] weight_i[25] weight_i[24] 
+ weight_i[23] weight_i[22] weight_i[21] weight_i[20] weight_i[19] weight_i[18] 
+ weight_i[17] weight_i[16] weight_i[15] weight_i[14] weight_i[13] weight_i[12] 
+ weight_i[11] weight_i[10] weight_i[9] weight_i[8] weight_i[7] weight_i[6] 
+ weight_i[5] weight_i[4] weight_i[3] weight_i[2] weight_i[1] weight_i[0] 
+ dout_o[159] dout_o[158] dout_o[157] dout_o[156] dout_o[155] dout_o[154] 
+ dout_o[153] dout_o[152] dout_o[151] dout_o[150] dout_o[149] dout_o[148] 
+ dout_o[147] dout_o[146] dout_o[145] dout_o[144] dout_o[143] dout_o[142] 
+ dout_o[141] dout_o[140] dout_o[139] dout_o[138] dout_o[137] dout_o[136] 
+ dout_o[135] dout_o[134] dout_o[133] dout_o[132] dout_o[131] dout_o[130] 
+ dout_o[129] dout_o[128] dout_o[127] dout_o[126] dout_o[125] dout_o[124] 
+ dout_o[123] dout_o[122] dout_o[121] dout_o[120] dout_o[119] dout_o[118] 
+ dout_o[117] dout_o[116] dout_o[115] dout_o[114] dout_o[113] dout_o[112] 
+ dout_o[111] dout_o[110] dout_o[109] dout_o[108] dout_o[107] dout_o[106] 
+ dout_o[105] dout_o[104] dout_o[103] dout_o[102] dout_o[101] dout_o[100] 
+ dout_o[99] dout_o[98] dout_o[97] dout_o[96] dout_o[95] dout_o[94] dout_o[93] 
+ dout_o[92] dout_o[91] dout_o[90] dout_o[89] dout_o[88] dout_o[87] dout_o[86] 
+ dout_o[85] dout_o[84] dout_o[83] dout_o[82] dout_o[81] dout_o[80] dout_o[79] 
+ dout_o[78] dout_o[77] dout_o[76] dout_o[75] dout_o[74] dout_o[73] dout_o[72] 
+ dout_o[71] dout_o[70] dout_o[69] dout_o[68] dout_o[67] dout_o[66] dout_o[65] 
+ dout_o[64] dout_o[63] dout_o[62] dout_o[61] dout_o[60] dout_o[59] dout_o[58] 
+ dout_o[57] dout_o[56] dout_o[55] dout_o[54] dout_o[53] dout_o[52] dout_o[51] 
+ dout_o[50] dout_o[49] dout_o[48] dout_o[47] dout_o[46] dout_o[45] dout_o[44] 
+ dout_o[43] dout_o[42] dout_o[41] dout_o[40] dout_o[39] dout_o[38] dout_o[37] 
+ dout_o[36] dout_o[35] dout_o[34] dout_o[33] dout_o[32] dout_o[31] dout_o[30] 
+ dout_o[29] dout_o[28] dout_o[27] dout_o[26] dout_o[25] dout_o[24] dout_o[23] 
+ dout_o[22] dout_o[21] dout_o[20] dout_o[19] dout_o[18] dout_o[17] dout_o[16] 
+ dout_o[15] dout_o[14] dout_o[13] dout_o[12] dout_o[11] dout_o[10] dout_o[9] 
+ dout_o[8] dout_o[7] dout_o[6] dout_o[5] dout_o[4] dout_o[3] dout_o[2] 
+ dout_o[1] dout_o[0] VDD VSS 
XU_CTRL_U598 VDD n1512 VSS U_CTRL_n488 n1509 NOR2X1 
XU_CTRL_U597 n1517 VDD VSS n1775 U_CTRL_n488 U_CTRL_n464 NAND3X1 
XU_CTRL_U595 VDD n2709 VSS U_CTRL_n378 n2979 NOR2X1 
XU_CTRL_U592 n2979 VDD VSS n2799 n2710 U_CTRL_n263 NAND3X1 
XU_CTRL_U590 VDD VSS n4747 n4853 n2550 U_CTRL_n468 NOR3X1 
XU_CTRL_U589 VSS VDD n4852 n4144 U_CTRL_n461 U_CTRL_n468 AOI21X1 
XU_CTRL_U588 n1775 VDD VSS U_CTRL_n488 n1518 U_CTRL_n489 NAND3X1 
XU_CTRL_U587 VSS VDD start_layer2_i n5778 U_CTRL_n481 n5777 n5781 AOI22X1 
XU_CTRL_U586 n1517 VDD VSS U_CTRL_n488 n1776 U_CTRL_n467 NAND3X1 
XU_CTRL_U585 VDD n1518 VSS U_CTRL_n487 n1510 NOR2X1 
XU_CTRL_U584 n1776 VDD VSS n1512 U_CTRL_n487 U_CTRL_n457 NAND3X1 
XU_CTRL_U583 VSS VDD weight_bias_mem_ack_i U_CTRL_n472 U_CTRL_n484 U_CTRL_n457 
+ AOI21X1 
XU_CTRL_U582 n1509 VDD VSS n1775 n1512 U_CTRL_n456 NAND3X1 
XU_CTRL_U581 VSS VDD start_layer1_i n1517 U_CTRL_n486 weight_bias_mem_ack_i 
+ n1518 AOI22X1 
XU_CTRL_U580 VDD VSS n1510 n1776 U_CTRL_n486 U_CTRL_n485 NOR3X1 
XU_CTRL_U579 VDD VSS n5775 U_CTRL_n485 n1238 U_CTRL_n483 NOR3X1 
XU_CTRL_U578 U_CTRL_n482 VDD VSS n1083 U_CTRL_n483 U_CTRL_next_state[0] NAND3X1 
XU_CTRL_U577 VDD VSS n1510 n1517 n1775 U_CTRL_n459 NOR3X1 
XU_CTRL_U573 VDD U_CTRL_n479 VSS n2546 n2484 NAND2X1 
XU_CTRL_U572 VDD VSS U_CTRL_n478 U_CTRL_n479 n1237 U_CTRL_n476 NOR3X1 
XU_CTRL_U571 VSS VDD U_CTRL_n476 n4835 U_CTRL_n460 n1512 OAI21X1 
XU_CTRL_U569 VSS VDD n5778 n5140 U_CTRL_n475 n5777 n5781 AOI22X1 
XU_CTRL_U568 U_CTRL_n467 VDD VSS n1086 n1129 U_CTRL_next_state[3] NAND3X1 
XU_CTRL_U566 VDD n1512 VSS U_CTRL_n473 n1510 NOR2X1 
XU_CTRL_U565 n1517 VDD VSS n1776 U_CTRL_n473 U_CTRL_n469 NAND3X1 
XU_CTRL_U564 n1509 VDD VSS n1775 n1518 U_CTRL_n470 NAND3X1 
XU_CTRL_U563 U_CTRL_n472 VDD VSS n5776 weight_bias_mem_ack_i U_CTRL_n471 
+ NAND3X1 
XU_CTRL_U561 VSS VDD n5779 n4144 U_CTRL_n465 n5778 n5140 AOI22X1 
XU_CTRL_U560 VSS VDD U_CTRL_n464 n5780 U_CTRL_n463 U_CTRL_n465 OAI21X1 
XU_CTRL_U559 VSS VDD U_CTRL_n461 n5777 U_CTRL_n458 U_CTRL_n459 U_CTRL_n460 
+ AOI22X1 
XU_CTRL_U558 U_CTRL_n457 VDD VSS U_CTRL_n456 n1128 U_CTRL_next_state[2] NAND3X1 
XU_CTRL_U554 VSS VDD U_CTRL_n454 U_CTRL_n429 U_CTRL_n455 n1491 OAI21X1 
XU_CTRL_U553 VSS VDD n1481 n1501 U_CTRL_n397 U_CTRL_n455 AOI21X1 
XU_CTRL_U550 n1783 VDD VSS U_CTRL_next_state[1] n1481 U_CTRL_n328 NAND3X1 
XU_CTRL_U548 VSS VDD weight_bias_mem_addr_o[0] U_CTRL_n432 U_CTRL_n452 n4336 
+ n2799 AOI22X1 
XU_CTRL_U546 VDD U_CTRL_N3800 VSS U_CTRL_n452 n8331 NAND2X1 
XU_CTRL_U545 VSS VDD weight_bias_mem_addr_o[1] U_CTRL_n432 U_CTRL_n450 n4336 
+ U_CTRL_N198 AOI22X1 
XU_CTRL_U543 VDD U_CTRL_N3810 VSS U_CTRL_n450 n8328 NAND2X1 
XU_CTRL_U542 VSS VDD weight_bias_mem_addr_o[2] U_CTRL_n432 U_CTRL_n448 n4336 
+ U_CTRL_N199 AOI22X1 
XU_CTRL_U540 VDD U_CTRL_N3820 VSS U_CTRL_n448 n8325 NAND2X1 
XU_CTRL_U539 VSS VDD weight_bias_mem_addr_o[3] U_CTRL_n432 U_CTRL_n446 n4336 
+ U_CTRL_N200 AOI22X1 
XU_CTRL_U537 VDD U_CTRL_N3830 VSS U_CTRL_n446 n8322 NAND2X1 
XU_CTRL_U536 VSS VDD weight_bias_mem_addr_o[4] U_CTRL_n432 U_CTRL_n444 n4336 
+ U_CTRL_N201 AOI22X1 
XU_CTRL_U534 VDD U_CTRL_N3840 VSS U_CTRL_n444 n8319 NAND2X1 
XU_CTRL_U533 VSS VDD weight_bias_mem_addr_o[5] U_CTRL_n432 U_CTRL_n441 
+ U_CTRL_N202 n4336 AOI22X1 
XU_CTRL_U531 VDD U_CTRL_N3850 VSS U_CTRL_n441 n8316 NAND2X1 
XU_CTRL_U530 VSS VDD U_CTRL_N193 n5137 U_CTRL_n440 weight_bias_mem_addr_o[6] 
+ U_CTRL_n432 AOI22X1 
XU_CTRL_U529 VSS VDD U_CTRL_N194 n5137 U_CTRL_n439 weight_bias_mem_addr_o[7] 
+ U_CTRL_n432 AOI22X1 
XU_CTRL_U528 VSS VDD U_CTRL_N195 n5137 U_CTRL_n438 weight_bias_mem_addr_o[8] 
+ U_CTRL_n432 AOI22X1 
XU_CTRL_U527 VSS VDD U_CTRL_N196 n5137 U_CTRL_n437 weight_bias_mem_addr_o[9] 
+ U_CTRL_n432 AOI22X1 
XU_CTRL_U526 VDD U_CTRL_n436 VSS img_mem_addr_o[0] U_CTRL_n432 NAND2X1 
XU_CTRL_U525 VSS VDD n2011 U_CTRL_n430 U_CTRL_N3910 U_CTRL_n436 OAI21X1 
XU_CTRL_U524 VDD U_CTRL_n435 VSS img_mem_addr_o[1] U_CTRL_n432 NAND2X1 
XU_CTRL_U523 VSS VDD n2551 U_CTRL_n430 U_CTRL_N3920 U_CTRL_n435 OAI21X1 
XU_CTRL_U522 VDD U_CTRL_n434 VSS img_mem_addr_o[2] U_CTRL_n432 NAND2X1 
XU_CTRL_U521 VSS VDD n2547 U_CTRL_n430 U_CTRL_N3930 U_CTRL_n434 OAI21X1 
XU_CTRL_U520 VDD U_CTRL_n433 VSS img_mem_addr_o[3] U_CTRL_n432 NAND2X1 
XU_CTRL_U519 VSS VDD n2483 U_CTRL_n430 U_CTRL_N3940 U_CTRL_n433 OAI21X1 
XU_CTRL_U518 VDD U_CTRL_n431 VSS img_mem_addr_o[4] U_CTRL_n432 NAND2X1 
XU_CTRL_U517 VSS VDD n2545 U_CTRL_n430 U_CTRL_N3950 U_CTRL_n431 OAI21X1 
XU_CTRL_U516 n1779 VDD VSS n2482 n5138 U_CTRL_n396 NAND3X1 
XU_CTRL_U515 n2482 VDD VSS n1780 n5138 U_CTRL_n395 NAND3X1 
XU_CTRL_U514 n2482 VDD VSS n1780 n1501 U_CTRL_n393 NAND3X1 
XU_CTRL_U513 n2979 VDD VSS n2709 n2799 U_CTRL_n282 NAND3X1 
XU_CTRL_U512 VDD U_CTRL_n259 VSS n2801 n2981 NAND2X1 
XU_CTRL_U510 VDD U_CTRL_n428 VSS U_CTRL_N4600 n1495 NOR2X1 
XU_CTRL_U497 VDD U_CTRL_n418 VSS n2011 n4815 NAND2X1 
XU_CTRL_U496 VSS VDD U_CTRL_n413 n2011 U_CTRL_N4970 U_CTRL_n418 OAI21X1 
XU_CTRL_U494 VSS VDD U_CTRL_n413 n2551 U_CTRL_N4980 n7593 OAI21X1 
XU_CTRL_U492 VSS VDD U_CTRL_n413 n2547 U_CTRL_N4990 n7590 OAI21X1 
XU_CTRL_U490 VSS VDD U_CTRL_n413 n2483 U_CTRL_N5000 n7587 OAI21X1 
XU_CTRL_U488 VSS VDD U_CTRL_n413 n2545 U_CTRL_N5010 n7584 OAI21X1 
XU_CTRL_U487 n1779 VDD VSS n2482 n1501 U_CTRL_n254 NAND3X1 
XU_CTRL_U485 VDD U_CTRL_n412 VSS n2799 n1499 NAND2X1 
XU_CTRL_U484 VSS VDD U_CTRL_n406 n2799 U_CTRL_N5020 U_CTRL_n412 OAI21X1 
XU_CTRL_U482 VSS VDD U_CTRL_n406 n2709 U_CTRL_N5030 n7581 OAI21X1 
XU_CTRL_U480 VSS VDD U_CTRL_n406 n2979 U_CTRL_N5040 n7578 OAI21X1 
XU_CTRL_U478 VSS VDD U_CTRL_n406 n2801 U_CTRL_N5050 n7575 OAI21X1 
XU_CTRL_U476 VSS VDD U_CTRL_n406 n2981 U_CTRL_N5060 n7572 OAI21X1 
XU_CTRL_U475 VSS VDD n1780 n5139 U_CTRL_n405 n2482 n1779 AOI22X1 
XU_CTRL_U474 VSS VDD n2482 n1501 U_CTRL_n403 U_CTRL_n405 OAI21X1 
XU_CTRL_U473 VDD U_CTRL_n402 VSS n4836 U_CTRL_n403 NAND2X1 
XU_CTRL_U472 VDD U_CTRL_N5070 VSS n1435 U_CTRL_n402 NAND2X1 
XU_CTRL_U470 n2546 VDD VSS n4815 U_CTRL_n401 U_CTRL_n398 NAND3X1 
XU_CTRL_U469 n2547 VDD VSS n2551 n2011 U_CTRL_n399 NAND3X1 
XU_CTRL_U466 n2709 VDD VSS n2980 n2800 U_CTRL_n272 NAND3X1 
XU_CTRL_U465 n1404 VDD VSS n1435 U_CTRL_n454 U_CTRL_n391 NAND3X1 
XU_CTRL_U464 n1406 VDD VSS n1495 n1412 U_CTRL_n392 NAND3X1 
XU_CTRL_U462 VSS VDD U_CTRL_n316 n2360 U_CTRL_n390 n4745 OAI21X1 
XU_CTRL_U461 VDD U_CTRL_n389 VSS update_res_reg_psum[29] n5074 NAND2X1 
XU_CTRL_U460 VSS VDD n5074 n4814 U_CTRL_n549 U_CTRL_n389 OAI21X1 
XU_CTRL_U459 n2709 VDD VSS n2799 n2980 U_CTRL_n269 NAND3X1 
XU_CTRL_U458 VSS VDD U_CTRL_n316 n2358 U_CTRL_n388 U_CTRL_n331 OAI21X1 
XU_CTRL_U457 VDD U_CTRL_n387 VSS update_res_reg_psum[28] n5075 NAND2X1 
XU_CTRL_U456 VSS VDD n5075 n4814 U_CTRL_n548 U_CTRL_n387 OAI21X1 
XU_CTRL_U455 n2979 VDD VSS n2710 n2800 U_CTRL_n266 NAND3X1 
XU_CTRL_U454 VSS VDD U_CTRL_n316 n2356 U_CTRL_n386 n4744 OAI21X1 
XU_CTRL_U453 VDD U_CTRL_n385 VSS update_res_reg_psum[27] n5076 NAND2X1 
XU_CTRL_U452 VSS VDD n5076 n4814 U_CTRL_n547 U_CTRL_n385 OAI21X1 
XU_CTRL_U451 VSS VDD U_CTRL_n316 n2550 U_CTRL_n384 n4745 OAI21X1 
XU_CTRL_U450 VDD U_CTRL_n383 VSS update_res_reg_psum[26] n5077 NAND2X1 
XU_CTRL_U449 VSS VDD n5077 n4814 U_CTRL_n546 U_CTRL_n383 OAI21X1 
XU_CTRL_U448 n2979 VDD VSS n2709 n2800 U_CTRL_n260 NAND3X1 
XU_CTRL_U447 VSS VDD U_CTRL_n316 n2354 U_CTRL_n382 U_CTRL_n331 OAI21X1 
XU_CTRL_U446 VDD U_CTRL_n381 VSS update_res_reg_psum[25] n5078 NAND2X1 
XU_CTRL_U445 VSS VDD n5078 n4814 U_CTRL_n545 U_CTRL_n381 OAI21X1 
XU_CTRL_U444 VSS VDD U_CTRL_n316 n1874 U_CTRL_n380 n4744 OAI21X1 
XU_CTRL_U443 VDD U_CTRL_n379 VSS update_res_reg_psum[24] n5079 NAND2X1 
XU_CTRL_U442 VSS VDD n5079 n4814 U_CTRL_n544 U_CTRL_n379 OAI21X1 
XU_CTRL_U439 VSS VDD n1784 n3043 U_CTRL_n377 n4745 OAI21X1 
XU_CTRL_U438 VDD U_CTRL_n376 VSS update_res_reg_psum[23] n5080 NAND2X1 
XU_CTRL_U437 VSS VDD n5080 n4814 U_CTRL_n543 U_CTRL_n376 OAI21X1 
XU_CTRL_U436 VSS VDD n4337 n3043 U_CTRL_n375 U_CTRL_n331 OAI21X1 
XU_CTRL_U435 VDD U_CTRL_n374 VSS update_res_reg_psum[22] n5081 NAND2X1 
XU_CTRL_U434 VSS VDD n5081 n4814 U_CTRL_n542 U_CTRL_n374 OAI21X1 
XU_CTRL_U433 VSS VDD n2360 n3043 U_CTRL_n373 n4744 OAI21X1 
XU_CTRL_U432 VDD U_CTRL_n372 VSS update_res_reg_psum[21] n5082 NAND2X1 
XU_CTRL_U431 VSS VDD n5082 n4814 U_CTRL_n541 U_CTRL_n372 OAI21X1 
XU_CTRL_U430 VSS VDD n2358 n3043 U_CTRL_n371 n4745 OAI21X1 
XU_CTRL_U429 VDD U_CTRL_n370 VSS update_res_reg_psum[20] n5083 NAND2X1 
XU_CTRL_U428 VSS VDD n5083 n4814 U_CTRL_n540 U_CTRL_n370 OAI21X1 
XU_CTRL_U427 VSS VDD n2356 n3043 U_CTRL_n369 U_CTRL_n331 OAI21X1 
XU_CTRL_U426 VDD U_CTRL_n368 VSS update_res_reg_psum[19] n5084 NAND2X1 
XU_CTRL_U425 VSS VDD n5084 n4814 U_CTRL_n539 U_CTRL_n368 OAI21X1 
XU_CTRL_U424 VSS VDD n2550 n3043 U_CTRL_n367 n4744 OAI21X1 
XU_CTRL_U423 VDD U_CTRL_n366 VSS update_res_reg_psum[18] n5085 NAND2X1 
XU_CTRL_U422 VSS VDD n5085 n4814 U_CTRL_n538 U_CTRL_n366 OAI21X1 
XU_CTRL_U421 VSS VDD n2354 n3043 U_CTRL_n365 n4745 OAI21X1 
XU_CTRL_U420 VDD U_CTRL_n364 VSS update_res_reg_psum[17] n5086 NAND2X1 
XU_CTRL_U419 VSS VDD n5086 n4814 U_CTRL_n537 U_CTRL_n364 OAI21X1 
XU_CTRL_U418 VSS VDD n1874 n3043 U_CTRL_n363 U_CTRL_n331 OAI21X1 
XU_CTRL_U417 VDD U_CTRL_n362 VSS update_res_reg_psum[16] n5087 NAND2X1 
XU_CTRL_U416 VSS VDD n5087 n4814 U_CTRL_n536 U_CTRL_n362 OAI21X1 
XU_CTRL_U415 VSS VDD n4747 n1784 U_CTRL_n361 n4744 OAI21X1 
XU_CTRL_U414 VDD U_CTRL_n360 VSS update_res_reg_psum[15] n5088 NAND2X1 
XU_CTRL_U413 VSS VDD n5088 n4814 U_CTRL_n535 U_CTRL_n360 OAI21X1 
XU_CTRL_U412 VSS VDD n4337 n4747 U_CTRL_n359 n4745 OAI21X1 
XU_CTRL_U411 VDD U_CTRL_n358 VSS update_res_reg_psum[14] n5089 NAND2X1 
XU_CTRL_U410 VSS VDD n5089 n4814 U_CTRL_n534 U_CTRL_n358 OAI21X1 
XU_CTRL_U409 VSS VDD n4747 n2360 U_CTRL_n357 U_CTRL_n331 OAI21X1 
XU_CTRL_U408 VDD U_CTRL_n356 VSS update_res_reg_psum[13] n5090 NAND2X1 
XU_CTRL_U407 VSS VDD n5090 n4814 U_CTRL_n533 U_CTRL_n356 OAI21X1 
XU_CTRL_U406 VSS VDD n4747 n2358 U_CTRL_n355 n4744 OAI21X1 
XU_CTRL_U405 VDD U_CTRL_n354 VSS update_res_reg_psum[12] n5091 NAND2X1 
XU_CTRL_U404 VSS VDD n5091 n4814 U_CTRL_n532 U_CTRL_n354 OAI21X1 
XU_CTRL_U403 VSS VDD n4747 n2356 U_CTRL_n353 n4745 OAI21X1 
XU_CTRL_U402 VDD U_CTRL_n352 VSS update_res_reg_psum[11] n5092 NAND2X1 
XU_CTRL_U401 VSS VDD n5092 n4814 U_CTRL_n531 U_CTRL_n352 OAI21X1 
XU_CTRL_U400 VSS VDD n4747 n2550 U_CTRL_n351 U_CTRL_n331 OAI21X1 
XU_CTRL_U399 VDD U_CTRL_n350 VSS update_res_reg_psum[10] n5093 NAND2X1 
XU_CTRL_U398 VSS VDD n5093 n4814 U_CTRL_n530 U_CTRL_n350 OAI21X1 
XU_CTRL_U397 VSS VDD n4747 n2354 U_CTRL_n349 n4744 OAI21X1 
XU_CTRL_U396 VDD U_CTRL_n348 VSS update_res_reg_psum[9] n5094 NAND2X1 
XU_CTRL_U395 VSS VDD n5094 n4814 U_CTRL_n529 U_CTRL_n348 OAI21X1 
XU_CTRL_U394 VSS VDD n4747 n1874 U_CTRL_n347 n4745 OAI21X1 
XU_CTRL_U393 VDD U_CTRL_n346 VSS update_res_reg_psum[8] n5095 NAND2X1 
XU_CTRL_U392 VSS VDD n5095 n4814 U_CTRL_n528 U_CTRL_n346 OAI21X1 
XU_CTRL_U391 VSS VDD n4746 n1784 U_CTRL_n345 U_CTRL_n331 OAI21X1 
XU_CTRL_U390 VDD U_CTRL_n344 VSS update_res_reg_psum[7] n5096 NAND2X1 
XU_CTRL_U389 VSS VDD n5096 n4814 U_CTRL_n527 U_CTRL_n344 OAI21X1 
XU_CTRL_U388 VSS VDD n4337 n4746 U_CTRL_n343 n4744 OAI21X1 
XU_CTRL_U387 VDD U_CTRL_n342 VSS update_res_reg_psum[6] n5097 NAND2X1 
XU_CTRL_U386 VSS VDD n5097 n4814 U_CTRL_n526 U_CTRL_n342 OAI21X1 
XU_CTRL_U385 VSS VDD n4746 n2360 U_CTRL_n341 n4745 OAI21X1 
XU_CTRL_U384 VDD U_CTRL_n340 VSS update_res_reg_psum[5] n5098 NAND2X1 
XU_CTRL_U383 VSS VDD n5098 n4814 U_CTRL_n525 U_CTRL_n340 OAI21X1 
XU_CTRL_U382 VSS VDD n4746 n2358 U_CTRL_n339 U_CTRL_n331 OAI21X1 
XU_CTRL_U381 VDD U_CTRL_n338 VSS update_res_reg_psum[4] n5099 NAND2X1 
XU_CTRL_U380 VSS VDD n5099 n4814 U_CTRL_n524 U_CTRL_n338 OAI21X1 
XU_CTRL_U379 VSS VDD n4746 n2356 U_CTRL_n337 n4744 OAI21X1 
XU_CTRL_U378 VDD U_CTRL_n336 VSS update_res_reg_psum[3] n5100 NAND2X1 
XU_CTRL_U377 VSS VDD n5100 n4814 U_CTRL_n523 U_CTRL_n336 OAI21X1 
XU_CTRL_U376 VSS VDD n2550 n4746 U_CTRL_n335 n4745 OAI21X1 
XU_CTRL_U375 VDD U_CTRL_n334 VSS update_res_reg_psum[2] n5101 NAND2X1 
XU_CTRL_U374 VSS VDD n5101 n4814 U_CTRL_n522 U_CTRL_n334 OAI21X1 
XU_CTRL_U373 VSS VDD n4746 n2354 U_CTRL_n333 U_CTRL_n331 OAI21X1 
XU_CTRL_U372 VDD U_CTRL_n332 VSS update_res_reg_psum[1] n5102 NAND2X1 
XU_CTRL_U371 VSS VDD n5102 n4814 U_CTRL_n521 U_CTRL_n332 OAI21X1 
XU_CTRL_U370 VDD U_CTRL_n330 VSS update_res_reg_psum[0] U_CTRL_n329 NAND2X1 
XU_CTRL_U369 VSS VDD U_CTRL_n329 n4814 U_CTRL_n520 U_CTRL_n330 OAI21X1 
XU_CTRL_U368 VSS VDD U_CTRL_n316 n2360 U_CTRL_n326 U_CTRL_n256 OAI21X1 
XU_CTRL_U367 VDD U_CTRL_n325 VSS update_res_reg_bias[29] n5103 NAND2X1 
XU_CTRL_U366 VSS VDD n5103 n4812 U_CTRL_n519 U_CTRL_n325 OAI21X1 
XU_CTRL_U365 VSS VDD U_CTRL_n316 n2358 U_CTRL_n324 U_CTRL_n256 OAI21X1 
XU_CTRL_U364 VDD U_CTRL_n323 VSS update_res_reg_bias[28] n5104 NAND2X1 
XU_CTRL_U363 VSS VDD n5104 n4812 U_CTRL_n518 U_CTRL_n323 OAI21X1 
XU_CTRL_U362 VSS VDD U_CTRL_n316 n2356 U_CTRL_n322 U_CTRL_n256 OAI21X1 
XU_CTRL_U361 VDD U_CTRL_n321 VSS update_res_reg_bias[27] n5105 NAND2X1 
XU_CTRL_U360 VSS VDD n5105 n4812 U_CTRL_n517 U_CTRL_n321 OAI21X1 
XU_CTRL_U359 VSS VDD U_CTRL_n316 n2550 U_CTRL_n320 U_CTRL_n256 OAI21X1 
XU_CTRL_U358 VDD U_CTRL_n319 VSS update_res_reg_bias[26] n5106 NAND2X1 
XU_CTRL_U357 VSS VDD n5106 n4812 U_CTRL_n516 U_CTRL_n319 OAI21X1 
XU_CTRL_U356 VSS VDD U_CTRL_n316 n2354 U_CTRL_n318 U_CTRL_n256 OAI21X1 
XU_CTRL_U355 VDD U_CTRL_n317 VSS update_res_reg_bias[25] n5107 NAND2X1 
XU_CTRL_U354 VSS VDD n5107 n4812 U_CTRL_n515 U_CTRL_n317 OAI21X1 
XU_CTRL_U353 VSS VDD U_CTRL_n316 n1874 U_CTRL_n315 U_CTRL_n256 OAI21X1 
XU_CTRL_U352 VDD U_CTRL_n314 VSS update_res_reg_bias[24] n5108 NAND2X1 
XU_CTRL_U351 VSS VDD n5108 n4812 U_CTRL_n514 U_CTRL_n314 OAI21X1 
XU_CTRL_U350 VSS VDD n1784 n3043 U_CTRL_n313 U_CTRL_n256 OAI21X1 
XU_CTRL_U349 VDD U_CTRL_n312 VSS update_res_reg_bias[23] n5109 NAND2X1 
XU_CTRL_U348 VSS VDD n5109 n4812 U_CTRL_n513 U_CTRL_n312 OAI21X1 
XU_CTRL_U347 VSS VDD n4337 n3043 U_CTRL_n311 U_CTRL_n256 OAI21X1 
XU_CTRL_U346 VDD U_CTRL_n310 VSS update_res_reg_bias[22] n5110 NAND2X1 
XU_CTRL_U345 VSS VDD n5110 n4812 U_CTRL_n512 U_CTRL_n310 OAI21X1 
XU_CTRL_U344 VSS VDD n2360 n3043 U_CTRL_n309 U_CTRL_n256 OAI21X1 
XU_CTRL_U343 VDD U_CTRL_n308 VSS update_res_reg_bias[21] n5111 NAND2X1 
XU_CTRL_U342 VSS VDD n5111 n4812 U_CTRL_n511 U_CTRL_n308 OAI21X1 
XU_CTRL_U341 VSS VDD n2358 n3043 U_CTRL_n307 U_CTRL_n256 OAI21X1 
XU_CTRL_U340 VDD U_CTRL_n306 VSS update_res_reg_bias[20] n5112 NAND2X1 
XU_CTRL_U339 VSS VDD n5112 n4812 U_CTRL_n510 U_CTRL_n306 OAI21X1 
XU_CTRL_U338 VSS VDD n2356 n3043 U_CTRL_n305 U_CTRL_n256 OAI21X1 
XU_CTRL_U337 VDD U_CTRL_n304 VSS update_res_reg_bias[19] n5113 NAND2X1 
XU_CTRL_U336 VSS VDD n5113 n4812 U_CTRL_n509 U_CTRL_n304 OAI21X1 
XU_CTRL_U335 VSS VDD n2550 n3043 U_CTRL_n303 U_CTRL_n256 OAI21X1 
XU_CTRL_U334 VDD U_CTRL_n302 VSS update_res_reg_bias[18] n5114 NAND2X1 
XU_CTRL_U333 VSS VDD n5114 n4812 U_CTRL_n508 U_CTRL_n302 OAI21X1 
XU_CTRL_U332 VSS VDD n2354 n3043 U_CTRL_n301 U_CTRL_n256 OAI21X1 
XU_CTRL_U331 VDD U_CTRL_n300 VSS update_res_reg_bias[17] n5115 NAND2X1 
XU_CTRL_U330 VSS VDD n5115 n4812 U_CTRL_n507 U_CTRL_n300 OAI21X1 
XU_CTRL_U329 VSS VDD n1874 n3043 U_CTRL_n298 U_CTRL_n256 OAI21X1 
XU_CTRL_U328 VDD U_CTRL_n297 VSS update_res_reg_bias[16] n5116 NAND2X1 
XU_CTRL_U327 VSS VDD n5116 n4812 U_CTRL_n506 U_CTRL_n297 OAI21X1 
XU_CTRL_U326 VSS VDD n4747 n1784 U_CTRL_n296 U_CTRL_n256 OAI21X1 
XU_CTRL_U325 VDD U_CTRL_n295 VSS update_res_reg_bias[15] n5117 NAND2X1 
XU_CTRL_U324 VSS VDD n5117 n4812 U_CTRL_n505 U_CTRL_n295 OAI21X1 
XU_CTRL_U323 VSS VDD n4337 n4747 U_CTRL_n294 U_CTRL_n256 OAI21X1 
XU_CTRL_U322 VDD U_CTRL_n293 VSS update_res_reg_bias[14] n5118 NAND2X1 
XU_CTRL_U321 VSS VDD n5118 n4812 U_CTRL_n504 U_CTRL_n293 OAI21X1 
XU_CTRL_U320 VSS VDD n4747 n2360 U_CTRL_n292 U_CTRL_n256 OAI21X1 
XU_CTRL_U319 VDD U_CTRL_n291 VSS update_res_reg_bias[13] n5119 NAND2X1 
XU_CTRL_U318 VSS VDD n5119 n4812 U_CTRL_n503 U_CTRL_n291 OAI21X1 
XU_CTRL_U317 VSS VDD n4747 n2358 U_CTRL_n290 U_CTRL_n256 OAI21X1 
XU_CTRL_U316 VDD U_CTRL_n289 VSS update_res_reg_bias[12] n5120 NAND2X1 
XU_CTRL_U315 VSS VDD n5120 n4812 U_CTRL_n502 U_CTRL_n289 OAI21X1 
XU_CTRL_U314 VSS VDD n4747 n2356 U_CTRL_n288 U_CTRL_n256 OAI21X1 
XU_CTRL_U313 VDD U_CTRL_n287 VSS update_res_reg_bias[11] n5121 NAND2X1 
XU_CTRL_U312 VSS VDD n5121 n4812 U_CTRL_n501 U_CTRL_n287 OAI21X1 
XU_CTRL_U311 VSS VDD n4747 n2550 U_CTRL_n286 U_CTRL_n256 OAI21X1 
XU_CTRL_U310 VDD U_CTRL_n285 VSS update_res_reg_bias[10] n5122 NAND2X1 
XU_CTRL_U309 VSS VDD n5122 n4812 U_CTRL_n500 U_CTRL_n285 OAI21X1 
XU_CTRL_U308 VSS VDD n4747 n2354 U_CTRL_n284 U_CTRL_n256 OAI21X1 
XU_CTRL_U307 VDD U_CTRL_n283 VSS update_res_reg_bias[9] n5123 NAND2X1 
XU_CTRL_U306 VSS VDD n5123 n4812 U_CTRL_n499 U_CTRL_n283 OAI21X1 
XU_CTRL_U305 VSS VDD n4747 n1874 U_CTRL_n280 U_CTRL_n256 OAI21X1 
XU_CTRL_U304 VDD U_CTRL_n279 VSS update_res_reg_bias[8] n5124 NAND2X1 
XU_CTRL_U303 VSS VDD n5124 n4812 U_CTRL_n498 U_CTRL_n279 OAI21X1 
XU_CTRL_U302 VSS VDD n4746 n1784 U_CTRL_n277 U_CTRL_n256 OAI21X1 
XU_CTRL_U301 VDD U_CTRL_n276 VSS update_res_reg_bias[7] n5125 NAND2X1 
XU_CTRL_U300 VSS VDD n5125 n4812 U_CTRL_n497 U_CTRL_n276 OAI21X1 
XU_CTRL_U299 VSS VDD n4337 n4746 U_CTRL_n274 U_CTRL_n256 OAI21X1 
XU_CTRL_U298 VDD U_CTRL_n273 VSS update_res_reg_bias[6] n5126 NAND2X1 
XU_CTRL_U297 VSS VDD n5126 n4812 U_CTRL_n496 U_CTRL_n273 OAI21X1 
XU_CTRL_U296 VSS VDD n4746 n2360 U_CTRL_n271 U_CTRL_n256 OAI21X1 
XU_CTRL_U295 VDD U_CTRL_n270 VSS update_res_reg_bias[5] n5127 NAND2X1 
XU_CTRL_U294 VSS VDD n5127 n4812 U_CTRL_n495 U_CTRL_n270 OAI21X1 
XU_CTRL_U293 VSS VDD n4746 n2358 U_CTRL_n268 U_CTRL_n256 OAI21X1 
XU_CTRL_U292 VDD U_CTRL_n267 VSS update_res_reg_bias[4] n5128 NAND2X1 
XU_CTRL_U291 VSS VDD n5128 n4812 U_CTRL_n494 U_CTRL_n267 OAI21X1 
XU_CTRL_U290 VSS VDD n4746 n2356 U_CTRL_n265 U_CTRL_n256 OAI21X1 
XU_CTRL_U289 VDD U_CTRL_n264 VSS update_res_reg_bias[3] n5129 NAND2X1 
XU_CTRL_U288 VSS VDD n5129 n4812 U_CTRL_n493 U_CTRL_n264 OAI21X1 
XU_CTRL_U287 VSS VDD n2550 n4746 U_CTRL_n262 U_CTRL_n256 OAI21X1 
XU_CTRL_U286 VDD U_CTRL_n261 VSS update_res_reg_bias[2] n5130 NAND2X1 
XU_CTRL_U285 VSS VDD n5130 n4812 U_CTRL_n492 U_CTRL_n261 OAI21X1 
XU_CTRL_U284 VSS VDD n4746 n2354 U_CTRL_n258 U_CTRL_n256 OAI21X1 
XU_CTRL_U283 VDD U_CTRL_n257 VSS update_res_reg_bias[1] n5131 NAND2X1 
XU_CTRL_U282 VSS VDD n5131 n4812 U_CTRL_n491 U_CTRL_n257 OAI21X1 
XU_CTRL_U281 VDD U_CTRL_n255 VSS update_res_reg_bias[0] U_CTRL_n253 NAND2X1 
XU_CTRL_U280 VSS VDD U_CTRL_n253 n4812 U_CTRL_n490 U_CTRL_n255 OAI21X1 
XU_CTRL_update_res_reg_bias_o_reg_0 VSS VDD U_CTRL_n490 VDD n4899 
+ update_res_reg_bias[0] clk DFFSR 
XU_CTRL_update_res_reg_bias_o_reg_1 VSS VDD U_CTRL_n491 VDD n5030 
+ update_res_reg_bias[1] clk DFFSR 
XU_CTRL_update_res_reg_bias_o_reg_2 VSS VDD U_CTRL_n492 VDD n5030 
+ update_res_reg_bias[2] clk DFFSR 
XU_CTRL_update_res_reg_bias_o_reg_3 VSS VDD U_CTRL_n493 VDD n5030 
+ update_res_reg_bias[3] clk DFFSR 
XU_CTRL_update_res_reg_bias_o_reg_4 VSS VDD U_CTRL_n494 VDD n5030 
+ update_res_reg_bias[4] clk DFFSR 
XU_CTRL_update_res_reg_bias_o_reg_5 VSS VDD U_CTRL_n495 VDD n5030 
+ update_res_reg_bias[5] clk DFFSR 
XU_CTRL_update_res_reg_bias_o_reg_6 VSS VDD U_CTRL_n496 VDD n5030 
+ update_res_reg_bias[6] clk DFFSR 
XU_CTRL_update_res_reg_bias_o_reg_7 VSS VDD U_CTRL_n497 VDD n5030 
+ update_res_reg_bias[7] clk DFFSR 
XU_CTRL_update_res_reg_bias_o_reg_8 VSS VDD U_CTRL_n498 VDD n5030 
+ update_res_reg_bias[8] clk DFFSR 
XU_CTRL_update_res_reg_bias_o_reg_9 VSS VDD U_CTRL_n499 VDD n5030 
+ update_res_reg_bias[9] clk DFFSR 
XU_CTRL_update_res_reg_bias_o_reg_10 VSS VDD U_CTRL_n500 VDD n5030 
+ update_res_reg_bias[10] clk DFFSR 
XU_CTRL_update_res_reg_bias_o_reg_11 VSS VDD U_CTRL_n501 VDD n5030 
+ update_res_reg_bias[11] clk DFFSR 
XU_CTRL_update_res_reg_bias_o_reg_12 VSS VDD U_CTRL_n502 VDD n5030 
+ update_res_reg_bias[12] clk DFFSR 
XU_CTRL_update_res_reg_bias_o_reg_13 VSS VDD U_CTRL_n503 VDD n5029 
+ update_res_reg_bias[13] clk DFFSR 
XU_CTRL_update_res_reg_bias_o_reg_14 VSS VDD U_CTRL_n504 VDD n5029 
+ update_res_reg_bias[14] clk DFFSR 
XU_CTRL_update_res_reg_bias_o_reg_15 VSS VDD U_CTRL_n505 VDD n5029 
+ update_res_reg_bias[15] clk DFFSR 
XU_CTRL_update_res_reg_bias_o_reg_16 VSS VDD U_CTRL_n506 VDD n5029 
+ update_res_reg_bias[16] clk DFFSR 
XU_CTRL_update_res_reg_bias_o_reg_17 VSS VDD U_CTRL_n507 VDD n5029 
+ update_res_reg_bias[17] clk DFFSR 
XU_CTRL_update_res_reg_bias_o_reg_18 VSS VDD U_CTRL_n508 VDD n5029 
+ update_res_reg_bias[18] clk DFFSR 